%%%%%%%%%%%%%%%%%%%%%%%%%%%%%%%%%%%%%%%%%%%%%%%%%%%%%%%%%%%%%%%%%%%%%%%%%%%%%%%%
%                                                                              %
% SU2 configuration file                                                       %
% Case description: Supersonic flow over a wedge in a channel (regression)     %
% Author: Thomas D. Economon                                                   %
% Institution: Stanford University                                             %
% Date: 2012.10.07                                                             %
% File Version 7.5.0 "Blackbird"                                               %
%                                                                              %
%%%%%%%%%%%%%%%%%%%%%%%%%%%%%%%%%%%%%%%%%%%%%%%%%%%%%%%%%%%%%%%%%%%%%%%%%%%%%%%%

% ------------- DIRECT, ADJOINT, AND LINEARIZED PROBLEM DEFINITION ------------%
%
SOLVER= NEMO_NAVIER_STOKES
KIND_TURB_MODEL= NONE
MATH_PROBLEM= DIRECT
RESTART_SOL= NO

% ----------- COMPRESSIBLE AND INCOMPRESSIBLE FREE-STREAM DEFINITION ----------%
%
MACH_NUMBER= 16.0
AOA= 0.0
SIDESLIP_ANGLE= 0.0
FREESTREAM_PRESSURE= 557.7558
FREESTREAM_TEMPERATURE= 237
FREESTREAM_TEMPERATURE_VE= 237
REYNOLDS_NUMBER = 1.760E6
INIT_OPTION= TD_CONDITIONS
%------------------------------- GAS MODEL ------------------------------------%
GAS_MODEL= AIR-5
GAS_COMPOSITION= (0.7543, 0.00713, 0.01026, 0.00001, 0.2283)
%GAS_COMPOSITION= ( 1.0)
%FLUID_MODEL= IDEAL_GAS

% ---------------------- REFERENCE VALUE DEFINITION ---------------------------%
%
REF_ORIGIN_MOMENT_X = 0.25
REF_ORIGIN_MOMENT_Y = 0.00
REF_ORIGIN_MOMENT_Z = 0.00
REF_LENGTH= 1.0
REF_AREA= 1.0

% -------------------- BOUNDARY CONDITION DEFINITION --------------------------%
%
MARKER_ISOTHERMAL= ( WALL, 553.3 )

MARKER_FAR = ( INLET )
MARKER_OUTLET= ( OUTLET ,  4462.0464 )

MARKER_SYM= ( SYMMETRY )
MARKER_MONITORING= ( WALL )

% ------------- COMMON PARAMETERS DEFINING THE NUMERICAL METHOD ---------------%
%
NUM_METHOD_GRAD= WEIGHTED_LEAST_SQUARES
CFL_NUMBER= 0.25
CFL_ADAPT= NO
CFL_ADAPT_PARAM= ( 1.5, 0.5, 1.0, 100.0 )
RK_ALPHA_COEFF= ( 0.66667, 0.66667, 1.000000 )
ITER= 110000
LINEAR_SOLVER= FGMRES
LINEAR_SOLVER_ERROR= 1E-6
LINEAR_SOLVER_ITER= 5

% -------------------------- MULTIGRID PARAMETERS -----------------------------%
%
MGLEVEL= 0
MGCYCLE= V_CYCLE
MG_PRE_SMOOTH= ( 1, 2, 3, 3 )
MG_POST_SMOOTH= ( 0, 0, 0, 0 )
MG_CORRECTION_SMOOTH= ( 0, 0, 0, 0 )
MG_DAMP_RESTRICTION= 0.8
MG_DAMP_PROLONGATION= 0.8

% -------------------- FLOW NUMERICAL METHOD DEFINITION -----------------------%
%
CONV_NUM_METHOD_FLOW= AUSM
MUSCL_FLOW= NO
SLOPE_LIMITER_FLOW= NONE
VENKAT_LIMITER_COEFF= 0.006
JST_SENSOR_COEFF= ( 0.5, 0.02 )
TIME_DISCRE_FLOW= EULER_IMPLICIT

% --------------------------- CONVERGENCE PARAMETERS --------------------------%
%
CONV_RESIDUAL_MINVAL= -13
CONV_STARTITER= 10
CONV_CAUCHY_ELEMS= 100
CONV_CAUCHY_EPS= 1E-10

% ------------------------- INPUT/OUTPUT INFORMATION --------------------------%
%
MESH_FILENAME= capsule-try.su2
MESH_FORMAT= SU2
MESH_OUT_FILENAME= mesh_out.su2
SOLUTION_FILENAME= solution_flow.dat
SOLUTION_ADJ_FILENAME= solution_adj.dat
TABULAR_FORMAT= CSV
CONV_FILENAME= history
RESTART_FILENAME= restart_flow.dat
RESTART_ADJ_FILENAME= restart_adj.dat
VOLUME_FILENAME= flow
VOLUME_ADJ_FILENAME= adjoint
GRAD_OBJFUNC_FILENAME= of_grad.dat
SURFACE_FILENAME= surface_flow
SURFACE_ADJ_FILENAME= surface_adjoint
OUTPUT_WRT_FREQ= 250
%SCREEN_OUTPUT = (INNER_ITER, RMS_DENSITY, RMS_ENERGY, LIFT, DRAG)

